 0,   34    /  PSS(R)E-34.0, WED, MAR 11 2015  11:27
 0 / End of System-Wide data, begin Bus Voltage Constraint data
     101     1.0500     0.9500  9999.0000 -9999.0000 1       1.0000
     102     1.0500     0.9500  9999.0000 -9999.0000 1       1.0000
     151     1.0500     0.9500  9999.0000 -9999.0000 1       1.0000
     152     1.0500     0.9500  9999.0000 -9999.0000 1       1.0000
     153     1.0500     0.9500  9999.0000 -9999.0000 1       1.0000
     154     1.0500     0.9500  9999.0000 -9999.0000 1       1.0000
     201     1.0500     0.9500  9999.0000 -9999.0000 1       1.0000
     202     1.0500     0.9500  9999.0000 -9999.0000 1       1.0000
     203     1.0500     0.9500  9999.0000 -9999.0000 1       1.0000
     204     1.0500     0.9500  9999.0000 -9999.0000 1       1.0000
     205     1.0500     0.9500  9999.0000 -9999.0000 1       1.0000
     206     1.0500     0.9500  9999.0000 -9999.0000 1       1.0000
     211     1.0500     0.9500  9999.0000 -9999.0000 1       1.0000
    3001     1.0500     0.9500  9999.0000 -9999.0000 1       1.0000
    3002     1.0500     0.9500  9999.0000 -9999.0000 1       1.0000
    3003     1.0500     0.9500  9999.0000 -9999.0000 1       1.0000
    3004     1.0500     0.9500  9999.0000 -9999.0000 1       1.0000
    3005     1.0500     0.9500  9999.0000 -9999.0000 1       1.0000
    3006     1.0500     0.9500  9999.0000 -9999.0000 1       1.0000
    3007     1.0500     0.9500  9999.0000 -9999.0000 1       1.0000
    3008     1.0500     0.9500  9999.0000 -9999.0000 1       1.0000
    3011     1.0500     0.9500  9999.0000 -9999.0000 1       1.0000
    3018     1.0500     0.9500  9999.0000 -9999.0000 1       1.0000
 0 / End of Bus Voltage Constraint data, begin Adjustable Bus Shunt data
 0 / End of Adjustable Bus Shunt data, begin Bus Load data
 0 / End of Bus Load data, begin Adjustable Bus Load Tables
 0 / End of Adjustable Bus Load Tables, begin Generator Dispatch data
     206 1       1.000        2
     211 1       1.000        4
    3011 1       1.000        3
    3018 1       1.000        1
 0 / End of Generator Dispatch data, begin Active Power Dispatch Tables
       1    130.000     10.000      1.000 2 1        1
       2   1000.000    100.000      1.000 3 1        2
       3   1000.000    100.000      1.000 3 1        3
       4    725.000     10.000      1.000 3 1        4
 0 / End of Active Power Dispatch Tables, begin Generation Reserve data
     206 1     10.000  1100.000
     211 1    100.000   725.000
 0 / End of Generation Reserve data, begin Generation Reactive Capability data
     101 1      1.760     1.000     0.950     0.950     0.454 1
     206 1      1.760     1.000     0.950     0.900     0.455 1
     211 1      1.760     1.000     0.950     0.950     0.455 1
    3011 1      1.470     1.000     0.900     0.850     0.544 1
    3018 1      1.760     1.000     0.950     0.900     0.454 4
 0 / End of Generation Reactive Capability data, begin Adjustable Branch Reactance data
     201      204 1      1.000     1.000     0.300  1440.000 1 1        0
 0 / End of Adjustable Branch Reactance data, begin Piece-wise Linear Cost Tables
        1  'LINEAR 1    '   9
    10.000   200.000
    20.000   420.000
    30.000   649.000
    40.000   885.500
    60.000  1371.500
    80.000  1868.500
    90.000  2121.500
   100.000  2378.500
   130.000  3164.500
 0 / End of Piece-wise Linear Cost Tables, begin Piece-wise Quadratic Cost Tables
        2  'QUAD. 2     '    2050.0000   8
   100.000    21.500
   200.000    22.500
   300.000    23.300
   400.000    24.000
   600.000    24.600
   800.000    25.100
   900.000    25.500
  1000.000    25.900
        3  'QUAD. 3     '    1700.0000   6
   100.000    18.100
   200.000    19.100
   400.000    20.700
   600.000    22.000
   800.000    23.100
  1000.000    23.800
        4  'QUAD. 4     '      30.5000   6
    10.000     3.000
    90.000     3.800
   125.001     4.150
   300.000     5.900
   500.000     7.900
   725.000    10.150
 0 / End of Piece-wise Quadratic Cost Tables, begin Polynomial Cost Tables
 0 / End of Polynomial Cost Tables, begin Period Reserve data
  1    200.000      5.000 1
     206 1
     211 1
 0 / End of Participating Reserve Units
 0 / End of Period Reserve data, begin Branch Flow Constraint data
     153      154 1  1   200.000     0.000     0.000     0.000 3 1     1.000
     153      154 2  1   200.000     0.000     0.000     0.000 3 1     1.000
     202      203 1  1   600.000   600.000     0.000     0.000 1 1     1.000
 0 / End of Branch Flow Constraint data, begin Interface Flow data
        1  'AREA 5 TO AREA 1                '   -155.000   -160.000 1 1     0.000
    3004      152 1
    3006      153 1
    3008      154 1
 0 / End of Participating Branches in Interface Flow
 0 / End of Interface Flow data, begin Linear Constraint Equation Dependency data
 0 / End of Linear Constraint Equation Dependency data, begin 2-terminal dc Line Constraint data
 0 / End of 2-terminal dc Line Constraint data
